simulator lang=spectre
include "nshort.scs"
include "pshort.scs"
